WIDTH=32;
DEPTH=1024;
ADDRESS_RADIX=HEX;
DATA_RADIX=HEX;
CONTENT BEGIN
  [0..3FF] : 00000000;
  0 : 0140006f;
  1 : 00000013;
  2 : 00000013;
  3 : 00000013;
  4 : 0340006f;
  5 : 00004117;
  6 : fec10113;
  7 : 00001297;
  8 : eec28293;
  9 : 00002317;
  A : 13830313;
  B : 0062f863;
  C : 0002a023;
  D : 00428293;
  E : ff5ff06f;
  F : 7cc000ef;
  10 : 0000006f;
  11 : f00003b7;
  12 : 0403a283;
  13 : 0ff2f293;
  14 : 04029663;
  15 : 34202373;
  16 : 8000ae37;
  17 : c01e0e13;
  18 : 01c3a023;
  19 : 0063a223;
  1A : 03c000ef;
  1B : 34102373;
  1C : 8000ae37;
  1D : d01e0e13;
  1E : 01c3a023;
  1F : 0063a223;
  20 : 024000ef;
  21 : 34302373;
  22 : 8000ae37;
  23 : e01e0e13;
  24 : 01c3a023;
  25 : 0063a223;
  26 : 00c000ef;
  27 : 0203a023;
  28 : 0000006f;
  29 : 00001eb7;
  2A : 770e8e93;
  2B : fffe8e93;
  2C : fe0e9ee3;
  2D : 00008067;
  2E : 00000013;
  2F : 800017b7;
  30 : f187a783;
  31 : 00f04463;
  32 : 00008067;
  33 : 80001337;
  34 : 00379793;
  35 : f3830313;
  36 : 00678533;
  37 : 00100893;
  38 : 00030793;
  39 : 00000813;
  3A : 0007a683;
  3B : 0047a703;
  3C : 00878793;
  3D : 0086a603;
  3E : 00872583;
  3F : 00c6a683;
  40 : 02c58063;
  41 : 00c72423;
  42 : 00d72623;
  43 : 01172823;
  44 : 00100813;
  45 : fca79ae3;
  46 : fc0814e3;
  47 : 00008067;
  48 : 00c72583;
  49 : fed590e3;
  4A : fedff06f;
  4B : fe010113;
  4C : 800017b7;
  4D : 01312623;
  4E : f207a983;
  4F : 00112e23;
  50 : 00812c23;
  51 : 00912a23;
  52 : 01212823;
  53 : 01412423;
  54 : 25305a63;
  55 : 80001437;
  56 : 00299913;
  57 : f3840413;
  58 : 013906b3;
  59 : 09040793;
  5A : 00469693;
  5B : 00d78733;
  5C : 08040493;
  5D : 0007a023;
  5E : 05078793;
  5F : fee79ce3;
  60 : 80001a37;
  61 : 08840793;
  62 : f14a2603;
  63 : 00d786b3;
  64 : 00100813;
  65 : 00c0006f;
  66 : 05078793;
  67 : 02d78e63;
  68 : 00c7a703;
  69 : fe070ae3;
  6A : 0107a703;
  6B : fec716e3;
  6C : 0187a703;
  6D : 0007a583;
  6E : 0007a623;
  6F : 01c7a503;
  70 : 1ce58c63;
  71 : 00e7a023;
  72 : 00a7a223;
  73 : 0107a423;
  74 : 05078793;
  75 : fcd796e3;
  76 : ee5ff0ef;
  77 : 800017b7;
  78 : f1c7a583;
  79 : 80001eb7;
  7A : f00ea623;
  7B : 0ab05263;
  7C : 58040693;
  7D : 00259713;
  7E : 00d70733;
  7F : 00068793;
  80 : 0007a023;
  81 : 00478793;
  82 : fee79ce3;
  83 : f14a2503;
  84 : 5c840793;
  85 : 00000e13;
  86 : 00000813;
  87 : 00000713;
  88 : fff00313;
  89 : 00100f13;
  8A : 0140006f;
  8B : 00170713;
  8C : 02078793;
  8D : 00468693;
  8E : 04b70063;
  8F : 0007a603;
  90 : fea616e3;
  91 : 0006a883;
  92 : 00281613;
  93 : 00c40633;
  94 : 00089a63;
  95 : 01e6a023;
  96 : 7ce62023;
  97 : 00180813;
  98 : 00100e13;
  99 : 0067a023;
  9A : 00170713;
  9B : 02078793;
  9C : 00468693;
  9D : fcb714e3;
  9E : 000e0463;
  9F : f10ea623;
  A0 : 0f305c63;
  A1 : 800014b7;
  A2 : fb848493;
  A3 : 00299913;
  A4 : 01390e33;
  A5 : f0cea883;
  A6 : 002e1e13;
  A7 : 00048813;
  A8 : 00000313;
  A9 : 00000f13;
  AA : 00100f93;
  AB : 0100006f;
  AC : 01430313;
  AD : 05080813;
  AE : 0a6e0c63;
  AF : 01082783;
  B0 : fe0788e3;
  B1 : 04882503;
  B2 : fea054e3;
  B3 : 00080713;
  B4 : 02872603;
  B5 : 00650533;
  B6 : 00251513;
  B7 : 00561793;
  B8 : 00f407b3;
  B9 : 5cc7a583;
  BA : 00261693;
  BB : 00a48533;
  BC : 00470713;
  BD : 00d406b3;
  BE : 02058863;
  BF : 5d07a583;
  C0 : 05058863;
  C1 : fae506e3;
  C2 : 02872603;
  C3 : 00470713;
  C4 : 00561793;
  C5 : 00f407b3;
  C6 : 5cc7a583;
  C7 : 00261693;
  C8 : 00d406b3;
  C9 : fc059ce3;
  CA : 5806a583;
  CB : 00289793;
  CC : 00f407b3;
  CD : fc0598e3;
  CE : 59f6a023;
  CF : 7cc7a023;
  D0 : 00188893;
  D1 : 00100f13;
  D2 : fce510e3;
  D3 : f65ff06f;
  D4 : 00882283;
  D5 : 5d87a583;
  D6 : fab296e3;
  D7 : 5dc7a783;
  D8 : 00c82583;
  D9 : fcf582e3;
  DA : fae510e3;
  DB : f45ff06f;
  DC : 000f0463;
  DD : f11ea623;
  DE : 01c12083;
  DF : 01812403;
  E0 : 01412483;
  E1 : 01012903;
  E2 : 00c12983;
  E3 : 00812a03;
  E4 : 02010113;
  E5 : 00008067;
  E6 : 0047a583;
  E7 : e2a594e3;
  E8 : df9ff06f;
  E9 : d19ff0ef;
  EA : 800017b7;
  EB : f1c7a583;
  EC : 80001eb7;
  ED : f00ea623;
  EE : fcb050e3;
  EF : 80001437;
  F0 : f3840413;
  F1 : 80001a37;
  F2 : e29ff06f;
  F3 : 0ff5f593;
  F4 : 00859713;
  F5 : 00b70733;
  F6 : 01071693;
  F7 : 00300793;
  F8 : 00d70733;
  F9 : 06c7f263;
  FA : ffc60593;
  FB : ffc5f693;
  FC : 00468693;
  FD : 00d506b3;
  FE : 00050793;
  FF : 00478793;
  100 : fee7ae23;
  101 : fed79ce3;
  102 : ffc5f593;
  103 : 00450793;
  104 : 00367613;
  105 : 00f585b3;
  106 : 02060663;
  107 : 0005a803;
  108 : 00400693;
  109 : 40c686b3;
  10A : 00369693;
  10B : fff00793;
  10C : 00d7d7b3;
  10D : 00e84733;
  10E : 00e7f7b3;
  10F : 0107c7b3;
  110 : 00f5a023;
  111 : 00008067;
  112 : 00050593;
  113 : fcdff06f;
  114 : 00300793;
  115 : 06c7fe63;
  116 : ffc60893;
  117 : ffc8f813;
  118 : 00480813;
  119 : 01050833;
  11A : 00058713;
  11B : 00050793;
  11C : 00072683;
  11D : 00478793;
  11E : 00470713;
  11F : fed7ae23;
  120 : ff0798e3;
  121 : ffc8f793;
  122 : 00458593;
  123 : 00f50733;
  124 : 00f585b3;
  125 : 00470713;
  126 : 00367613;
  127 : 02060863;
  128 : 00072803;
  129 : 0005a583;
  12A : 00400693;
  12B : 40c686b3;
  12C : 00369693;
  12D : fff00793;
  12E : 00d7d7b3;
  12F : 00b846b3;
  130 : 00d7f7b3;
  131 : 0107c7b3;
  132 : 00f72023;
  133 : 00008067;
  134 : 00050713;
  135 : fc9ff06f;
  136 : 00269693;
  137 : 00d50533;
  138 : 00008067;
  139 : 00858513;
  13A : 00008067;
  13B : 00008067;
  13C : 800016b7;
  13D : f146a683;
  13E : 00012603;
  13F : 00078893;
  140 : 00100793;
  141 : 00c686b3;
  142 : 02e5a023;
  143 : 0315a223;
  144 : 00f5aa23;
  145 : 00d5ac23;
  146 : 00008067;
  147 : 0485a783;
  148 : 00700713;
  149 : 02f74063;
  14A : 800016b7;
  14B : f106a683;
  14C : 00279713;
  14D : 00178793;
  14E : 00e58733;
  14F : 04f5a423;
  150 : 02d72423;
  151 : 00008067;
  152 : 800017b7;
  153 : f147a503;
  154 : 00000593;
  155 : 00008067;
  156 : 80001737;
  157 : f1072683;
  158 : 800017b7;
  159 : f147a703;
  15A : 800017b7;
  15B : 00569693;
  15C : f3878793;
  15D : 00b70733;
  15E : 00d787b3;
  15F : 5ce7a423;
  160 : 00008067;
  161 : 800017b7;
  162 : f107a703;
  163 : 800017b7;
  164 : f3878793;
  165 : 00571713;
  166 : 00e787b3;
  167 : 00100513;
  168 : 5cb7a823;
  169 : 5cc7ac23;
  16A : 5cd7ae23;
  16B : 5ca7a623;
  16C : 00008067;
  16D : 00008067;
  16E : f00007b7;
  16F : 0407a703;
  170 : 00f77713;
  171 : 08071a63;
  172 : 0407a783;
  173 : 0f07f793;
  174 : 08079463;
  175 : ff010113;
  176 : 00068893;
  177 : 08d05063;
  178 : 01000737;
  179 : f0070713;
  17A : 00859593;
  17B : 800007b7;
  17C : 00e5f5b3;
  17D : 00178793;
  17E : f0000837;
  17F : 00f5e5b3;
  180 : 00480813;
  181 : 00000513;
  182 : f0000337;
  183 : 25700713;
  184 : 00000793;
  185 : 00d05463;
  186 : 00062783;
  187 : 00b32023;
  188 : 00f82023;
  189 : 00012623;
  18A : 00c12783;
  18B : 00f74c63;
  18C : 00c12783;
  18D : 00178793;
  18E : 00f12623;
  18F : 00c12783;
  190 : fef758e3;
  191 : 00150513;
  192 : 00860613;
  193 : fd1512e3;
  194 : 01010113;
  195 : 00008067;
  196 : 00008067;
  197 : 00100893;
  198 : f81ff06f;
  199 : f00007b7;
  19A : 0207a023;
  19B : 0000006f;
  19C : 06c05063;
  19D : 80001637;
  19E : f0862503;
  19F : 00758713;
  1A0 : ff877713;
  1A1 : 000017b7;
  1A2 : 00e506b3;
  1A3 : 80078793;
  1A4 : 02d7e863;
  1A5 : 800027b7;
  1A6 : 93878793;
  1A7 : 00f50533;
  1A8 : f0d62423;
  1A9 : 00070c63;
  1AA : 00a70733;
  1AB : 00050793;
  1AC : 00078023;
  1AD : 00178793;
  1AE : fef71ce3;
  1AF : 00008067;
  1B0 : 80002537;
  1B1 : 93850513;
  1B2 : 00070693;
  1B3 : fd5ff06f;
  1B4 : 00061463;
  1B5 : fa0590e3;
  1B6 : 800016b7;
  1B7 : f086a503;
  1B8 : 000017b7;
  1B9 : 80078793;
  1BA : 00850713;
  1BB : 00e7fc63;
  1BC : 00800713;
  1BD : 80002537;
  1BE : f0e6a423;
  1BF : 93850513;
  1C0 : fa9ff06f;
  1C1 : 800027b7;
  1C2 : 93878793;
  1C3 : f0e6a423;
  1C4 : 00f50533;
  1C5 : 00800713;
  1C6 : f91ff06f;
  1C7 : 80001537;
  1C8 : 73850513;
  1C9 : 00008067;
  1CA : 800018b7;
  1CB : f208a703;
  1CC : 80001537;
  1CD : f3850513;
  1CE : 00271613;
  1CF : 00e60633;
  1D0 : 00461613;
  1D1 : 00170593;
  1D2 : 00c50733;
  1D3 : ff010113;
  1D4 : 08f72423;
  1D5 : 09072623;
  1D6 : 00000793;
  1D7 : 00000813;
  1D8 : 08050513;
  1D9 : f2b8a023;
  1DA : 08d72023;
  1DB : 08072a23;
  1DC : 08072823;
  1DD : 08072c23;
  1DE : 0af72023;
  1DF : 0b072223;
  1E0 : 0c072423;
  1E1 : 00c50533;
  1E2 : 01010113;
  1E3 : 00008067;
  1E4 : 800016b7;
  1E5 : f186a703;
  1E6 : 800017b7;
  1E7 : f3878793;
  1E8 : 00371513;
  1E9 : 00a787b3;
  1EA : 00170713;
  1EB : f0e6ac23;
  1EC : 00b7a023;
  1ED : 00c7a223;
  1EE : 00008067;
  1EF : 800016b7;
  1F0 : f1c6a703;
  1F1 : 800017b7;
  1F2 : f3878793;
  1F3 : 00571613;
  1F4 : 00170713;
  1F5 : 00c787b3;
  1F6 : f0e6ae23;
  1F7 : fff00613;
  1F8 : 00000693;
  1F9 : 00000713;
  1FA : 5ca7a023;
  1FB : 5cb7a223;
  1FC : 5c07a623;
  1FD : 5c07a823;
  1FE : 5cd7ac23;
  1FF : 5ce7ae23;
  200 : 5cc7a423;
  201 : 00008067;
  202 : f0000737;
  203 : 00100693;
  204 : 02d72023;
  205 : 00070793;
  206 : 04072703;
  207 : 00f77713;
  208 : 00071a63;
  209 : 04078793;
  20A : 0007a783;
  20B : 0f07f793;
  20C : 00078863;
  20D : f00007b7;
  20E : 0207a023;
  20F : 0000006f;
  210 : fd010113;
  211 : 03212023;
  212 : 80001937;
  213 : 800017b7;
  214 : 01312e23;
  215 : 01512a23;
  216 : 01812423;
  217 : 80001ab7;
  218 : f1090513;
  219 : 800019b7;
  21A : 80001c37;
  21B : 01912223;
  21C : f007ac23;
  21D : 02112623;
  21E : 02812423;
  21F : 02912223;
  220 : 01412c23;
  221 : 01612823;
  222 : f009a623;
  223 : f00aae23;
  224 : f20c2023;
  225 : 4fc000ef;
  226 : f1caa783;
  227 : 80001cb7;
  228 : f00caa23;
  229 : 16f05863;
  22A : 80001a37;
  22B : f38a0a13;
  22C : 5c0a0493;
  22D : 00000413;
  22E : 0004a783;
  22F : 0044a503;
  230 : f0892823;
  231 : 00000613;
  232 : f1090593;
  233 : 000780e7;
  234 : f1caab03;
  235 : 00140413;
  236 : 02048493;
  237 : fd644ee3;
  238 : fdcff0ef;
  239 : f009a623;
  23A : 05605263;
  23B : 5cca0693;
  23C : 00000513;
  23D : 00000613;
  23E : 00000793;
  23F : 0006a583;
  240 : 00261713;
  241 : 00ea0733;
  242 : 00059863;
  243 : 7cf72023;
  244 : 00160613;
  245 : 00100513;
  246 : 00178793;
  247 : 02068693;
  248 : fcfb1ee3;
  249 : 00050463;
  24A : f0c9a623;
  24B : 01712623;
  24C : 80001b37;
  24D : 02fafbb7;
  24E : 6f8b0b13;
  24F : 080b8b93;
  250 : f0c9a783;
  251 : 04f05063;
  252 : 000b0493;
  253 : 00000413;
  254 : 0004a703;
  255 : 00100613;
  256 : f1090593;
  257 : 00571793;
  258 : 00fa07b3;
  259 : 5c07a683;
  25A : 5c47a503;
  25B : f0e92823;
  25C : 00140413;
  25D : 000680e7;
  25E : f0c9a783;
  25F : 00448493;
  260 : fcf448e3;
  261 : fa8ff0ef;
  262 : f0c9a783;
  263 : faf04ee3;
  264 : f1caa603;
  265 : f20c2583;
  266 : 06c05263;
  267 : 00561613;
  268 : 5c8a0793;
  269 : 00f60633;
  26A : fff00693;
  26B : 0007a703;
  26C : 02078793;
  26D : 00d77463;
  26E : 00070693;
  26F : fec798e3;
  270 : 02b05663;
  271 : 094a0793;
  272 : 00000713;
  273 : 0007a603;
  274 : 00170713;
  275 : 00060863;
  276 : 0047a603;
  277 : 00d67463;
  278 : 00060693;
  279 : 05078793;
  27A : feb742e3;
  27B : 00dbee63;
  27C : f0dcaa23;
  27D : f38ff0ef;
  27E : f49ff06f;
  27F : 00b05663;
  280 : fff00693;
  281 : fc1ff06f;
  282 : f00007b7;
  283 : 0207a023;
  284 : 0000006f;
  285 : 80001a37;
  286 : ea4ff0ef;
  287 : f38a0a13;
  288 : f009a623;
  289 : f09ff06f;
  28A : fe010113;
  28B : 00812c23;
  28C : 00912a23;
  28D : 00112e23;
  28E : 00050413;
  28F : 00058493;
  290 : 0c060063;
  291 : 00452783;
  292 : 00100713;
  293 : 08e78263;
  294 : 00200713;
  295 : 00e78c63;
  296 : 01c12083;
  297 : 01812403;
  298 : 01412483;
  299 : 02010113;
  29A : 00008067;
  29B : 00052503;
  29C : 00000693;
  29D : 00000713;
  29E : 00000613;
  29F : 00100593;
  2A0 : 01212823;
  2A1 : a55ff0ef;
  2A2 : 00052903;
  2A3 : 00048513;
  2A4 : 00090593;
  2A5 : a51ff0ef;
  2A6 : 00054703;
  2A7 : 00000793;
  2A8 : 00000813;
  2A9 : 00090593;
  2AA : 01012223;
  2AB : 00f12023;
  2AC : 00173713;
  2AD : 00048513;
  2AE : 00000813;
  2AF : 00000893;
  2B0 : 00100613;
  2B1 : 00000693;
  2B2 : a29ff0ef;
  2B3 : 01012903;
  2B4 : 004c55b7;
  2B5 : 00048513;
  2B6 : b4058593;
  2B7 : 00000613;
  2B8 : a79ff0ef;
  2B9 : 00200793;
  2BA : 01c12083;
  2BB : 00f42223;
  2BC : 01812403;
  2BD : 01412483;
  2BE : 02010113;
  2BF : 00008067;
  2C0 : 00052503;
  2C1 : 00000693;
  2C2 : 00000713;
  2C3 : 00100593;
  2C4 : 00000613;
  2C5 : 9c5ff0ef;
  2C6 : 00052583;
  2C7 : 00100613;
  2C8 : 00048513;
  2C9 : 00000693;
  2CA : 9c5ff0ef;
  2CB : 00100793;
  2CC : 01c12083;
  2CD : 00f42223;
  2CE : 01812403;
  2CF : 01412483;
  2D0 : 02010113;
  2D1 : 00008067;
  2D2 : fe010113;
  2D3 : 00812c23;
  2D4 : 00912a23;
  2D5 : 00112e23;
  2D6 : 00050413;
  2D7 : 00058493;
  2D8 : 08060e63;
  2D9 : 00452783;
  2DA : 00100713;
  2DB : fff78793;
  2DC : 06f76c63;
  2DD : 00052503;
  2DE : 00100693;
  2DF : 00000713;
  2E0 : 00068593;
  2E1 : 00070613;
  2E2 : 01212823;
  2E3 : 94dff0ef;
  2E4 : 00052583;
  2E5 : 00048513;
  2E6 : 94dff0ef;
  2E7 : 00052903;
  2E8 : b7dff0ef;
  2E9 : 00050a63;
  2EA : 00052783;
  2EB : 00452703;
  2EC : 00e7e7b3;
  2ED : 00079463;
  2EE : b65ff0ef;
  2EF : 41f95793;
  2F0 : 00048513;
  2F1 : 00100693;
  2F2 : 00810613;
  2F3 : 00000593;
  2F4 : 01212423;
  2F5 : 00f12623;
  2F6 : 9e1ff0ef;
  2F7 : 01012903;
  2F8 : 00200793;
  2F9 : 00f42223;
  2FA : 01c12083;
  2FB : 01812403;
  2FC : 01412483;
  2FD : 02010113;
  2FE : 00008067;
  2FF : 00052503;
  300 : 00100693;
  301 : 00000713;
  302 : 00068593;
  303 : 00070613;
  304 : 8c9ff0ef;
  305 : 00052583;
  306 : 00100613;
  307 : 00048513;
  308 : 00000693;
  309 : 8f9ff0ef;
  30A : 00100793;
  30B : 01c12083;
  30C : 00f42223;
  30D : 01812403;
  30E : 01412483;
  30F : 02010113;
  310 : 00008067;
  311 : fe010113;
  312 : 00812c23;
  313 : 00912a23;
  314 : 00112e23;
  315 : 00050413;
  316 : 00058493;
  317 : 08060863;
  318 : 00452783;
  319 : 00100713;
  31A : fff78793;
  31B : 06f76663;
  31C : 01212823;
  31D : 00852903;
  31E : 00052503;
  31F : 00100693;
  320 : 00190913;
  321 : 00000713;
  322 : 00068593;
  323 : 00070613;
  324 : 01242423;
  325 : 845ff0ef;
  326 : 00052583;
  327 : 00000793;
  328 : 00000813;
  329 : 00f12023;
  32A : 01012223;
  32B : 41f95793;
  32C : 00090713;
  32D : 00048513;
  32E : 00000813;
  32F : 00000893;
  330 : 00100613;
  331 : 00000693;
  332 : 829ff0ef;
  333 : 01012903;
  334 : 00200793;
  335 : 00f42223;
  336 : 01c12083;
  337 : 01812403;
  338 : 01412483;
  339 : 02010113;
  33A : 00008067;
  33B : 00052503;
  33C : 01212823;
  33D : 00000713;
  33E : 00100693;
  33F : 00070613;
  340 : 00068593;
  341 : 00042423;
  342 : fd0ff0ef;
  343 : 00052583;
  344 : 00100613;
  345 : 00048513;
  346 : 00000693;
  347 : fd0ff0ef;
  348 : 00042503;
  349 : 00000713;
  34A : 00000693;
  34B : 00100593;
  34C : 00000613;
  34D : fa4ff0ef;
  34E : 00052903;
  34F : 00100613;
  350 : 00048513;
  351 : 00090593;
  352 : 00000693;
  353 : fd0ff0ef;
  354 : 00090593;
  355 : 00048513;
  356 : 00100613;
  357 : 00000693;
  358 : 825ff0ef;
  359 : 00050593;
  35A : 00048513;
  35B : 849ff0ef;
  35C : 00100793;
  35D : 01c12083;
  35E : 00f42223;
  35F : 01812403;
  360 : 01012903;
  361 : 01412483;
  362 : 02010113;
  363 : 00008067;
  364 : fd010113;
  365 : 02812423;
  366 : 80002437;
  367 : 02112623;
  368 : 13840413;
  369 : 02912223;
  36A : 03212023;
  36B : 01312e23;
  36C : 01412c23;
  36D : 00100693;
  36E : 00000713;
  36F : 00012023;
  370 : 00068593;
  371 : 00070613;
  372 : 00000893;
  373 : 00000793;
  374 : 00000813;
  375 : 00042023;
  376 : 00050913;
  377 : 94dff0ef;
  378 : 00050313;
  379 : 00012023;
  37A : 00642223;
  37B : 00000893;
  37C : 00000813;
  37D : 00090513;
  37E : 00000793;
  37F : 00400693;
  380 : 00000713;
  381 : 00100593;
  382 : 00000613;
  383 : 91dff0ef;
  384 : 00440493;
  385 : 00050793;
  386 : 00000693;
  387 : 00048513;
  388 : 00000713;
  389 : 00100593;
  38A : 00000613;
  38B : 00f42423;
  38C : 00942623;
  38D : ea4ff0ef;
  38E : 00050793;
  38F : 00c42503;
  390 : 00100693;
  391 : 00000713;
  392 : 0007aa03;
  393 : 00068593;
  394 : 00070613;
  395 : e84ff0ef;
  396 : 00052983;
  397 : 00012023;
  398 : 00000893;
  399 : fff00813;
  39A : 00400693;
  39B : 00000713;
  39C : 800007b7;
  39D : 01442823;
  39E : 00090513;
  39F : 00100593;
  3A0 : 00000613;
  3A1 : 8a5ff0ef;
  3A2 : 00050593;
  3A3 : 00098613;
  3A4 : 00090513;
  3A5 : 00b42a23;
  3A6 : 8f9ff0ef;
  3A7 : 800017b7;
  3A8 : 80001537;
  3A9 : 00048613;
  3AA : f2c78593;
  3AB : a2850513;
  3AC : f297a623;
  3AD : 909ff0ef;
  3AE : 800017b7;
  3AF : 80001537;
  3B0 : 00048613;
  3B1 : f2478593;
  3B2 : b4850513;
  3B3 : f297a223;
  3B4 : 8edff0ef;
  3B5 : 01040613;
  3B6 : 00c42c23;
  3B7 : 01840593;
  3B8 : 02812403;
  3B9 : 02c12083;
  3BA : 02412483;
  3BB : 02012903;
  3BC : 01c12983;
  3BD : 01812a03;
  3BE : 80001537;
  3BF : c4450513;
  3C0 : 03010113;
  3C1 : 8b9ff06f;
END;
